[1714620458.837544] [node0246:552156:0]          parser.c:1906 UCX  WARN  unused env variable: UCX_ROOT (set UCX_WARN_UNUSED_ENV_VARS=n to suppress this warning)
[1714620458.838541] [node0246:552157:0]          parser.c:1906 UCX  WARN  unused env variable: UCX_ROOT (set UCX_WARN_UNUSED_ENV_VARS=n to suppress this warning)
LAMMPS (30 Sep 2013)
LAMMPS (1 Sep 2017)

#mui DPD solver

variable lratio     equal   1.0
variable vratio     equal   1.0
variable tratio     equal   1.0
variable fratio     equal   1.0

variable  xlo       equal  0.0
variable  xhi       equal  10.0
variable  ylo       equal  0.0
variable  yhi       equal  10.0
variable  zlo       equal  30.0
variable  zhi       equal  51.0

variable prhi       equal 36.0
variable prlo       equal 33.0
variable frhi       equal 31.0
variable frlo       equal 30.0
variable adhi       equal 51.0
variable adlo       equal 50.0
variable step       equal 0.01
variable cutr       equal 1.0
variable wflag      equal 2

# variable force      equal 0.001
# variable inter      equal 20
variable scale      equal 10
variable t_tol      equal 0

variable den  equal 1
variable npar equal round((10-0)*(10-0)*(51-30)*1)

#*************settings**************
dimension 3
units lj
boundary p p f

atom_style atomic
#read_restart dpd2.80000.restart
#reset_timestep 0

region    dpd  block 0 10 0 10 30 51 units box
create_box  2 dpd
Created orthogonal box = (0 0 30) to (10 10 51)
create_atoms   1 random 2100 32413 dpd
Created 2100 atoms
neighbor 2.0 bin
neigh_modify delay 0 every 1 check yes

comm_modify vel yes
mass * 1.0

region todel block INF INF INF INF INF 30
group todel region todel
0 atoms in group todel
delete_atoms group todel
Deleted 0 atoms, new total = 2100

region pregion block INF INF INF INF 33 36
region fregion block INF INF INF INF 30 31
region wall block INF INF INF INF 50 51

group wall region wall
112 atoms in group wall
group flow subtract all wall
1988 atoms in group flow

compute mobile flow temp
velocity flow create 1.0 45216
newton on

pair_style dpd 1.0 1.0 64739 2 50
pair_coeff * * 25.0 12 1.4

fix 1 all nve

velocity wall set 0.0 0.0 0.0 units box

variable        gx    equal  0.00000025*180
variable        fx atom mass*4.5e-05
fix    pressure flow addforce v_fx 0.0 0.0

fix 2 all wall/reflect zlo EDGE zhi EDGE units box
fix 3 flow wall/reflect zlo 30 zhi 50 units box
fix 4 wall wall/reflect zlo 50 zhi EDGE units box
fix 5 wall setforce 0.0 0.0 0.0
fix muicpu all meso/mui mpi://domain1/interface pregion fregion 1 10 1 1 1 0

############### set variables for convenience

### model parameters

variable	kBT		equal 1.0
variable	seed		equal 2654868
variable	cut_att		equal 1.00
variable	cut_rep		equal 0.75
variable	cut_rho		equal 0.75
variable	cut_phi		equal 1.00
variable	skin		equal 0.3*1

variable	rho_solids	equal 8.0

variable	A_att_11	equal -40 # solid--solid
variable	A_att_12	equal -40 # solid--fluid
variable	A_att_22	equal -20 # fluid--fluid

variable    B_rep       equal 25
variable    gamma       equal 18.0

variable    type_fluid	equal 1
variable    type_solid	equal 2

variable    phi_c       equal 0.5

variable    mass_fluid	equal 1
variable    mass_solid	equal 1

### domain parameters

variable    xlo     equal  0
variable    xhi     equal  10
variable    ylo     equal  0
variable    yhi     equal  10
variable    zlo     equal  0
variable    zhi     equal  35

variable    prhi    equal 32.0
variable    prlo    equal 29.0
variable    frhi    equal 35.0
variable    frlo    equal 34.0
variable    adhi    equal 5.0
variable    adlo    equal 0.0
variable    cutr    equal 1.0

variable den  equal 7
variable npar equal round((10-0)*(10-0)*(35-0)*7)

### runtime parameters

variable    step        equal 0.01

############### set units, dimension and global boundary type

units		lj
dimension	3
boundary	p p f
neighbor	0.2999999999999999889 bin
neigh_modify	every 1 delay 0 check yes
atom_style	mdpd/atomic/meso 8

region          box block 0 10 0 10 0 35 units box
create_box      2 box
Created orthogonal box = (0 0 0) to (10 10 35)
create_atoms    1 random 24500 574856 box
Created 24500 atoms

mass * 1.0

region pregion  block INF INF INF INF 29 32
region fregion  block INF INF INF INF 34 35
region wall     block INF INF INF INF 0 5

group		group_solid region  wall
3551 atoms in group group_solid
group		group_fluid subtract all group_solid
20949 atoms in group group_fluid

compute mobile group_fluid temp
velocity group_fluid create 1.0 87287

############### specify bead-to-bead pair style and coefficients

pair_style	mdpd/meso 1 1 2654868 group_fluid group_solid
pair_coeff	1 1 -40 25 18 1 0.75
pair_coeff	1 2 -40 25 18 1 0.75
pair_coeff	2 2 -20 25 18 1 0.75

############### specify unit mass

###############

fix		BC all aboundary/rho/meso wall group_solid mobile group_fluid rho_wall 8 cut_phi 1 phi_c 0.5 cut_rho 0.75
fix     muigpu all mui/meso/gpu mpi://domain2/interface 32 29 35 34 1
MUI [comm_mpi.h]: Rank: 0, Identifier: mpi://domain2/interface, Domain size: 1, Peers: 1
MUI [comm_mpi.h]: Rank: 1, Identifier: mpi://domain1/interface, Domain size: 1, Peers: 1, global size2

run_style       mvv/meso

timestep	0.010000000000000000208
thermo		100

run		1000

#*********************dump***************************************************
#fix 7 all ave/chunk 10 10 1000 cc1 vx norm sample file v_dpd.out
#compute        peratom all stress/atom NULL
#fix     tau_xz all ave/chunk  10 10 1000 cc1 c_peratom[5] norm sample file stress_dpd.profile

timestep 0.01
thermo 100
#thermo_modify temp mobile
#dump mydump all xyz 100 dpd1.xyz
#restart 10000 dpd2.*.restart
run 1000
Setting up run ...
  update every 1 steps, delay 0 steps, check yes
Setting up Verlet run ...
  Unit style    : lj
  Current step  : 0
  Time step     : 0.01
Step Temp E_pair E_mol TotEng Press
0   0.94664126    9.9432632            0    11.362549    11.682618
Step Temp E_pair E_mol TotEng Press
0   0.85505531    70.446269            0      71.7288    5.9851429
Averages over the last 10 of 20 rows, steps 500 to 1000:
Temp E_pair E_mol TotEng Press
0.89917 37.8219 0 39.1703 7.71655
Loop time of 3.13778 on 1 procs for 1000 steps with 2100 atoms

Loop time of 3.11877 on 16 procs (1 MPI x 16 OpenMP) for 1000 steps with 24500 atoms

Pair  time (%) = 0.0107793 (0.345628)
Neigh time (%) = 0.000381985 (0.0122479)
Comm  time (%) = 0.2879 (9.23121)
Outpt time (%) = 0.00212331 (0.0680816)
Other time (%) = 2.81758 (90.3428)
